/*--------------------------------*- C++ -*----------------------------------*\
| =========                 |                                                 |
| \\      /  F ield         | OpenFOAM: The Open Source CFD Toolbox           |
|  \\    /   O peration     | Version:  v1706                                 |
|   \\  /    A nd           | Web:      www.OpenFOAM.org                      |
|    \\/     M anipulation  |                                                 |
\*---------------------------------------------------------------------------*/
FoamFile
{
    version     2.0;
    format      ascii;
    class       dictionary;
    location    "system";
    object      controlDict;
}
// * * * * * * * * * * * * * * * * * * * * * * * * * * * * * * * * * * * * * //

application     hy2Foam;

startFrom       latestTime;

startTime       0;

stopAt          endTime;

endTime         0.02;

deltaT          1e-8;

writeControl    adjustableRunTime;

writeInterval   5e-5;

purgeWrite      0;

writeFormat     ascii;

writePrecision  10;

writeCompression off;

timeFormat      general;

timePrecision   10;

runTimeModifiable true;

adjustTimeStep  yes;

maxCo           0.1;

maxDeltaT       1.0e-5;

// libs ("libstrathFiniteVolume.so");

/*functions
{
    #include "forces"

    #include "surfaceQuantities"

    fieldMinMax1
    {
        type        fieldMinMax;
        libs        ("libfieldFunctionObjects.so");
        // write       yes;
        log         yes;
        location    yes;
        mode        magnitude;
        fields
        (
            U
            Mach
            p
        );
    }

}*/


// ************************************************************************* //
